Circuit: * Z:\home\jg\hack\bytelights_detector\bass_detector.asc

V2: Removing PWL point (0.006667,0)
V2: Removing PWL point (0.011859,0)
V2: Removing PWL point (0.014671,0)
V2: Removing PWL point (0.017823,0)
V2: Removing PWL point (0.018277,0)
V2: Removing PWL point (0.020181,0)
V2: Removing PWL point (0.023764,0)
V2: Removing PWL point (0.025329,0)
V2: Removing PWL point (0.02898,0.05)
V2: Removing PWL point (0.03161,0)
V2: Removing PWL point (0.033379,0)
V2: Removing PWL point (0.033719,0)
V2: Removing PWL point (0.034898,0)
V2: Removing PWL point (0.037029,0)
V2: Removing PWL point (0.037143,0)
V2: Removing PWL point (0.057188,0)
V2: Removing PWL point (0.057392,0)
V2: Removing PWL point (0.062132,0)
V2: Removing PWL point (0.070295,0)
V2: Removing PWL point (0.073628,0)
V2: Removing PWL point (0.080816,0)
V2: Removing PWL point (0.083016,0)
V2: Removing PWL point (0.716417,0.014276)
V2: Removing PWL point (1.44327,0.048151)
V2: Removing PWL point (9.36002,0.002332)
V2: Removing PWL point (9.73633,0.009789)
V2: Removing PWL point (11.8584,0.009538)
V2: Removing PWL point (15.1205,0.005911)
V2: Removing PWL point (15.852,0.040217)
V2: Removing PWL point (22.3127,0.047294)
V2: Removing PWL point (27.1405,0.004269)
V2: Removing PWL point (27.4774,0.000143)
WARNING: Less than two connections to node IN.  This node is used by B1.
Early termination of direct N-R iteration.
Direct Newton iteration failed to find .op point.  (Use ".option noopiter" to skip.)
Starting Gmin stepping
Gmin = 10
vernier = 0.5
vernier = 0.25
vernier = 0.125
Gmin = 5.5165
vernier = 0.0625
vernier = 0.03125
vernier = 0.015625
vernier = 0.0078125
Gmin = 5.49501
vernier = 0.00390625
vernier = 0.00195313
vernier = 0.000976563
vernier = 0.000488281
Gmin = 5.50104
Gmin = 0
Gmin stepping succeeded in finding the operating point.


Date: Wed Mar 17 21:05:50 2021
Total elapsed time: 44.796 seconds.

tnom = 27
temp = 27
method = modified trap
totiter = 632094
traniter = 630649
tranpoints = 312541
accept = 311259
rejected = 1282
matrix size = 114
fillins = 642
solver = Normal
Thread vector: 6.2/7.0[2] 4.0/3.6[2] 2.1/1.9[2] 0.7/2.7[1]  2592/500
Matrix Compiler1: 53.50 KB object code size  6.3/2.8/[2.4]
Matrix Compiler2: 20.01 KB object code size  2.4/2.2/[1.8]

